26
XYZ file generated by Avogadro.
Ni    -0.02384    0.00080    1.32319
Ni     0.02388    0.00107   -1.32320
O      1.39981   -1.42402    1.12935
O     -1.44530    1.42145    1.11450
O     -1.44546   -1.41998    1.11557
O      1.39943    1.42572    1.12903
C      1.81253   -1.81183    0.01394
C     -1.81244   -1.81192   -0.01331
O     -1.39939    1.42601   -1.12976
O      1.44558   -1.41959   -1.11485
O      1.44523    1.42183   -1.11523
O     -1.39979   -1.42376   -1.12862
C     -1.81196    1.81389   -0.01433
C      1.81193    1.81395    0.01368
H     -2.59210   -2.59206   -0.02812
H     -2.59133    2.59431   -0.02891
H      2.59126    2.59441    0.02847
H      2.59223   -2.59192    0.02854
N     -0.01210   -0.00281   -3.35314
H      0.92538   -0.02971   -3.73582
H     -0.52331   -0.81457   -3.67988
H     -0.47922    0.83225   -3.68694
N      0.01206   -0.00116    3.35314
H     -0.92546   -0.02618    3.73582
H      0.52205   -0.81327    3.68090
H      0.48042    0.83362    3.68592
