55
Coordinates from ORCA-job model3_bf4.input
  C   9.97113350728523     26.36634731784926      3.66512090859225
  C   9.71549302238117     27.29405965282933      2.65262670778057
  C   5.29019085284337     20.84342072431391      3.14108120808808
  C   4.55837405865183     30.14062180054293      3.21097697380457
  C   5.64677954388834     22.28212149322419      3.32529505164008
  C   5.16014776331031     28.78636250097734      3.39770629320862
  C   5.76592229137767     25.55446480591246      4.86904966405663
  C   6.65476766844098     22.98786305140492      2.63893282399757
  C   6.32723308242815     28.31461152365824      2.76559756474474
  C   5.09066442342240     23.19707968406919      4.20774242985564
  C   4.74890933257256     27.76784101545040      4.23656449747592
  C   7.56909354325432     22.48357156900880      1.57844827322382
  C   7.13118657494554     29.04191689731942      1.75263702799810
  C   4.00142144368671     23.02742542399390      5.20784099718313
  C   3.62104794490958     27.71660764412835      5.20302049403402
  H   9.90673655733822     26.64766715946988      4.70650255716194
  H   4.93969894848707     25.50488897262395      5.56716585582955
  H   6.70240789623103     25.58964125081144      5.42361920542738
  H   8.03069165808721     23.31284503403322      1.04362258195730
  H   7.67131757739353     28.35084735283823      1.11234959392286
  H   7.02716687226921     21.86446545133943      0.86156089978144
  H   6.48040348363176     29.65878289089189      1.13130728595501
  H   8.36257996700660     21.86683391354712      2.01042139311393
  H   7.85059275940610     29.70653426524108      2.23714192104025
  H   3.32258079092402     23.88121026745713      5.21773443574492
  H   3.05091713879861     26.78899624709751      5.11830451267057
  H   4.40277191134109     22.90219460451334      6.21735140431044
  H   4.00018887181544     27.80659584722568      6.22389333519561
  H   9.42580319271773     28.27076452453231      3.02000352220897
  N   6.71740579460771     24.24400094823588      3.08443623044426
  N   6.62291189556931     27.09067880898506      3.20550053990850
  N   5.74962750676957     24.36796287659715      4.02707319424882
  N   5.63640166430316     26.75296303371124      4.08451175363488
  Rh  8.15488617099563     25.77186479316604      2.92233983039953
  H   5.93175039431089     20.18924460836127      3.73786165357060
  H   5.40628574171269     20.53927944776935      2.09942279986547
  H   4.25987781292143     20.64020427763431      3.43571272866102
  H   5.17739793470101     30.91311027671962      3.67410439321009
  H   3.56741524574632     30.20491821702487      3.65987698385146
  H   4.46014266478312     30.39389784752646      2.15278512107163
  H   3.41652981808220     22.14010050890735      4.97118627615949
  H   2.93621346443263     28.54151636405457      5.01654791084674
  C   10.28738761477390     27.27003606182213      1.26208910995924
  C   10.30534723364513     24.96262313998172      3.31481179529493
  H   9.57274619686734     27.64671345340584      0.52897049730262
  H   10.58586290065245     26.27188816258857      0.94327071787458
  H   11.17046991919547     27.91706439966539      1.20337427466507
  H   11.11844898726011     24.83205011413781      2.59855706906312
  H   10.44796349593217     24.32818376321094      4.18419345511625
  H   9.43335121397701     24.46933516339191      2.71090118021110
  B   7.92981381128877     27.56695872617433      6.65884085506339
  F   8.50665906259361     27.90117877937694      7.86842565735511
  F   6.51345637685775     27.59544968792327      6.75181684297122
  F   8.34407393251730     28.43407027193139      5.63048901852926
  F   8.31190546665754     26.22962938139156      6.29620069071771
